
---------- Begin Simulation Statistics ----------
sim_seconds                                  1.019526                       # Number of seconds simulated
sim_ticks                                1019526002000                       # Number of ticks simulated
final_tick                               1019526002000                       # Number of ticks from beginning of simulation (restored from checkpoints and never reset)
sim_freq                                 1000000000000                       # Frequency of simulated ticks
host_inst_rate                                 856624                       # Simulator instruction rate (inst/s)
host_op_rate                                  1389129                       # Simulator op (including micro ops) rate (op/s)
host_tick_rate                             1732534042                       # Simulator tick rate (ticks/s)
host_mem_usage                                 678540                       # Number of bytes of host memory used
host_seconds                                   588.46                       # Real time elapsed on the host
sim_insts                                   504088750                       # Number of instructions simulated
sim_ops                                     817446049                       # Number of ops (including micro ops) simulated
system.voltage_domain.voltage                       1                       # Voltage in Volts
system.clk_domain.clock                          1000                       # Clock period in ticks
system.mem_ctrls.pwrStateResidencyTicks::UNDEFINED 1019526002000                       # Cumulative time (in ticks) in various power states
system.mem_ctrls.bytes_read::cpu.inst           22592                       # Number of bytes read from this memory
system.mem_ctrls.bytes_read::cpu.data         7864128                       # Number of bytes read from this memory
system.mem_ctrls.bytes_read::total            7886720                       # Number of bytes read from this memory
system.mem_ctrls.bytes_inst_read::cpu.inst        22592                       # Number of instructions bytes read from this memory
system.mem_ctrls.bytes_inst_read::total         22592                       # Number of instructions bytes read from this memory
system.mem_ctrls.bytes_written::writebacks      4765120                       # Number of bytes written to this memory
system.mem_ctrls.bytes_written::total         4765120                       # Number of bytes written to this memory
system.mem_ctrls.num_reads::cpu.inst              353                       # Number of read requests responded to by this memory
system.mem_ctrls.num_reads::cpu.data           122877                       # Number of read requests responded to by this memory
system.mem_ctrls.num_reads::total              123230                       # Number of read requests responded to by this memory
system.mem_ctrls.num_writes::writebacks         74455                       # Number of write requests responded to by this memory
system.mem_ctrls.num_writes::total              74455                       # Number of write requests responded to by this memory
system.mem_ctrls.bw_read::cpu.inst              22159                       # Total read bandwidth from this memory (bytes/s)
system.mem_ctrls.bw_read::cpu.data            7713514                       # Total read bandwidth from this memory (bytes/s)
system.mem_ctrls.bw_read::total               7735673                       # Total read bandwidth from this memory (bytes/s)
system.mem_ctrls.bw_inst_read::cpu.inst         22159                       # Instruction read bandwidth from this memory (bytes/s)
system.mem_ctrls.bw_inst_read::total            22159                       # Instruction read bandwidth from this memory (bytes/s)
system.mem_ctrls.bw_write::writebacks         4673858                       # Write bandwidth from this memory (bytes/s)
system.mem_ctrls.bw_write::total              4673858                       # Write bandwidth from this memory (bytes/s)
system.mem_ctrls.bw_total::writebacks         4673858                       # Total bandwidth to/from this memory (bytes/s)
system.mem_ctrls.bw_total::cpu.inst             22159                       # Total bandwidth to/from this memory (bytes/s)
system.mem_ctrls.bw_total::cpu.data           7713514                       # Total bandwidth to/from this memory (bytes/s)
system.mem_ctrls.bw_total::total             12409531                       # Total bandwidth to/from this memory (bytes/s)
system.pwrStateResidencyTicks::UNDEFINED 1019526002000                       # Cumulative time (in ticks) in various power states
system.cpu_voltage_domain.voltage                   1                       # Voltage in Volts
system.cpu_clk_domain.clock                       500                       # Clock period in ticks
system.cpu.dtb.walker.pwrStateResidencyTicks::UNDEFINED 1019526002000                       # Cumulative time (in ticks) in various power states
system.cpu.dtb.rdAccesses                   238245975                       # TLB accesses on read requests
system.cpu.dtb.wrAccesses                    64374644                       # TLB accesses on write requests
system.cpu.dtb.rdMisses                          5921                       # TLB misses on read requests
system.cpu.dtb.wrMisses                           999                       # TLB misses on write requests
system.cpu.apic_clk_domain.clock                 8000                       # Clock period in ticks
system.cpu.interrupts.pwrStateResidencyTicks::UNDEFINED 1019526002000                       # Cumulative time (in ticks) in various power states
system.cpu.itb.walker.pwrStateResidencyTicks::UNDEFINED 1019526002000                       # Cumulative time (in ticks) in various power states
system.cpu.itb.rdAccesses                           0                       # TLB accesses on read requests
system.cpu.itb.wrAccesses                   677335179                       # TLB accesses on write requests
system.cpu.itb.rdMisses                             0                       # TLB misses on read requests
system.cpu.itb.wrMisses                            36                       # TLB misses on write requests
system.cpu.workload.numSyscalls                     9                       # Number of system calls
system.cpu.pwrStateResidencyTicks::ON    1019526002000                       # Cumulative time (in ticks) in various power states
system.cpu.numCycles                       2039052004                       # number of cpu cycles simulated
system.cpu.numWorkItemsStarted                      0                       # number of work items this cpu started
system.cpu.numWorkItemsCompleted                    0                       # number of work items this cpu completed
system.cpu.committedInsts                   504088750                       # Number of instructions committed
system.cpu.committedOps                     817446049                       # Number of ops (including micro ops) committed
system.cpu.num_int_alu_accesses             812629932                       # Number of integer alu accesses
system.cpu.num_fp_alu_accesses                   1935                       # Number of float alu accesses
system.cpu.num_vec_alu_accesses                     0                       # Number of vector alu accesses
system.cpu.num_func_calls                     9452832                       # number of times a function call or return occured
system.cpu.num_conditional_control_insts     46565886                       # number of instructions that are conditional controls
system.cpu.num_int_insts                    812629932                       # number of integer instructions
system.cpu.num_fp_insts                          1935                       # number of float instructions
system.cpu.num_vec_insts                            0                       # number of vector instructions
system.cpu.num_int_register_reads          1822855467                       # number of times the integer registers were read
system.cpu.num_int_register_writes          705741271                       # number of times the integer registers were written
system.cpu.num_fp_register_reads                 3763                       # number of times the floating registers were read
system.cpu.num_fp_register_writes                1476                       # number of times the floating registers were written
system.cpu.num_vec_register_reads                   0                       # number of times the vector registers were read
system.cpu.num_vec_register_writes                  0                       # number of times the vector registers were written
system.cpu.num_cc_register_reads            297557700                       # number of times the CC registers were read
system.cpu.num_cc_register_writes           279904573                       # number of times the CC registers were written
system.cpu.num_mem_refs                     302620616                       # number of memory refs
system.cpu.num_load_insts                   238245972                       # Number of load instructions
system.cpu.num_store_insts                   64374644                       # Number of store instructions
system.cpu.num_idle_cycles                          0                       # Number of idle cycles
system.cpu.num_busy_cycles                 2039052004                       # Number of busy cycles
system.cpu.not_idle_fraction                        1                       # Percentage of non-idle cycles
system.cpu.idle_fraction                            0                       # Percentage of idle cycles
system.cpu.Branches                          60772142                       # Number of branches fetched
system.cpu.op_class::No_OpClass               1362107      0.17%      0.17% # Class of executed instruction
system.cpu.op_class::IntAlu                 505014316     61.78%     61.95% # Class of executed instruction
system.cpu.op_class::IntMult                        4      0.00%     61.95% # Class of executed instruction
system.cpu.op_class::IntDiv                   8448046      1.03%     62.98% # Class of executed instruction
system.cpu.op_class::FloatAdd                      10      0.00%     62.98% # Class of executed instruction
system.cpu.op_class::FloatCmp                       0      0.00%     62.98% # Class of executed instruction
system.cpu.op_class::FloatCvt                       0      0.00%     62.98% # Class of executed instruction
system.cpu.op_class::FloatMult                      0      0.00%     62.98% # Class of executed instruction
system.cpu.op_class::FloatMultAcc                   0      0.00%     62.98% # Class of executed instruction
system.cpu.op_class::FloatDiv                       0      0.00%     62.98% # Class of executed instruction
system.cpu.op_class::FloatMisc                      0      0.00%     62.98% # Class of executed instruction
system.cpu.op_class::FloatSqrt                      0      0.00%     62.98% # Class of executed instruction
system.cpu.op_class::SimdAdd                      374      0.00%     62.98% # Class of executed instruction
system.cpu.op_class::SimdAddAcc                     0      0.00%     62.98% # Class of executed instruction
system.cpu.op_class::SimdAlu                       68      0.00%     62.98% # Class of executed instruction
system.cpu.op_class::SimdCmp                        0      0.00%     62.98% # Class of executed instruction
system.cpu.op_class::SimdCvt                      108      0.00%     62.98% # Class of executed instruction
system.cpu.op_class::SimdMisc                     214      0.00%     62.98% # Class of executed instruction
system.cpu.op_class::SimdMult                       0      0.00%     62.98% # Class of executed instruction
system.cpu.op_class::SimdMultAcc                    0      0.00%     62.98% # Class of executed instruction
system.cpu.op_class::SimdShift                    186      0.00%     62.98% # Class of executed instruction
system.cpu.op_class::SimdShiftAcc                   0      0.00%     62.98% # Class of executed instruction
system.cpu.op_class::SimdSqrt                       0      0.00%     62.98% # Class of executed instruction
system.cpu.op_class::SimdFloatAdd                   0      0.00%     62.98% # Class of executed instruction
system.cpu.op_class::SimdFloatAlu                   0      0.00%     62.98% # Class of executed instruction
system.cpu.op_class::SimdFloatCmp                   0      0.00%     62.98% # Class of executed instruction
system.cpu.op_class::SimdFloatCvt                   0      0.00%     62.98% # Class of executed instruction
system.cpu.op_class::SimdFloatDiv                   0      0.00%     62.98% # Class of executed instruction
system.cpu.op_class::SimdFloatMisc                  0      0.00%     62.98% # Class of executed instruction
system.cpu.op_class::SimdFloatMult                  0      0.00%     62.98% # Class of executed instruction
system.cpu.op_class::SimdFloatMultAcc               0      0.00%     62.98% # Class of executed instruction
system.cpu.op_class::SimdFloatSqrt                  0      0.00%     62.98% # Class of executed instruction
system.cpu.op_class::MemRead                238245920     29.15%     92.12% # Class of executed instruction
system.cpu.op_class::MemWrite                64374233      7.88%    100.00% # Class of executed instruction
system.cpu.op_class::FloatMemRead                  52      0.00%    100.00% # Class of executed instruction
system.cpu.op_class::FloatMemWrite                411      0.00%    100.00% # Class of executed instruction
system.cpu.op_class::IprAccess                      0      0.00%    100.00% # Class of executed instruction
system.cpu.op_class::InstPrefetch                   0      0.00%    100.00% # Class of executed instruction
system.cpu.op_class::total                  817446049                       # Class of executed instruction
system.cpu.dcache.tags.pwrStateResidencyTicks::UNDEFINED 1019526002000                       # Cumulative time (in ticks) in various power states
system.cpu.dcache.tags.tagsinuse          1023.136149                       # Cycle average of tags in use
system.cpu.dcache.tags.total_refs           302620619                       # Total number of references to valid blocks.
system.cpu.dcache.tags.sampled_refs            595616                       # Sample count of references to valid blocks.
system.cpu.dcache.tags.avg_refs            508.080070                       # Average number of references to valid blocks.
system.cpu.dcache.tags.warmup_cycle            759000                       # Cycle when the warmup percentage was hit.
system.cpu.dcache.tags.occ_blocks::cpu.data  1023.136149                       # Average occupied blocks per requestor
system.cpu.dcache.tags.occ_percent::cpu.data     0.999156                       # Average percentage of cache occupancy
system.cpu.dcache.tags.occ_percent::total     0.999156                       # Average percentage of cache occupancy
system.cpu.dcache.tags.occ_task_id_blocks::1024         1024                       # Occupied blocks per task id
system.cpu.dcache.tags.age_task_id_blocks_1024::0           11                       # Occupied blocks per task id
system.cpu.dcache.tags.age_task_id_blocks_1024::1           18                       # Occupied blocks per task id
system.cpu.dcache.tags.age_task_id_blocks_1024::3          470                       # Occupied blocks per task id
system.cpu.dcache.tags.age_task_id_blocks_1024::4          525                       # Occupied blocks per task id
system.cpu.dcache.tags.occ_task_id_percent::1024            1                       # Percentage of cache occupancy per task id
system.cpu.dcache.tags.tag_accesses         605836854                       # Number of tag accesses
system.cpu.dcache.tags.data_accesses        605836854                       # Number of data accesses
system.cpu.dcache.pwrStateResidencyTicks::UNDEFINED 1019526002000                       # Cumulative time (in ticks) in various power states
system.cpu.dcache.ReadReq_hits::cpu.data    237714913                       # number of ReadReq hits
system.cpu.dcache.ReadReq_hits::total       237714913                       # number of ReadReq hits
system.cpu.dcache.WriteReq_hits::cpu.data     64268931                       # number of WriteReq hits
system.cpu.dcache.WriteReq_hits::total       64268931                       # number of WriteReq hits
system.cpu.dcache.demand_hits::cpu.data     301983844                       # number of demand (read+write) hits
system.cpu.dcache.demand_hits::total        301983844                       # number of demand (read+write) hits
system.cpu.dcache.overall_hits::cpu.data    301983844                       # number of overall hits
system.cpu.dcache.overall_hits::total       301983844                       # number of overall hits
system.cpu.dcache.ReadReq_misses::cpu.data       531062                       # number of ReadReq misses
system.cpu.dcache.ReadReq_misses::total        531062                       # number of ReadReq misses
system.cpu.dcache.WriteReq_misses::cpu.data       105713                       # number of WriteReq misses
system.cpu.dcache.WriteReq_misses::total       105713                       # number of WriteReq misses
system.cpu.dcache.demand_misses::cpu.data       636775                       # number of demand (read+write) misses
system.cpu.dcache.demand_misses::total         636775                       # number of demand (read+write) misses
system.cpu.dcache.overall_misses::cpu.data       636775                       # number of overall misses
system.cpu.dcache.overall_misses::total        636775                       # number of overall misses
system.cpu.dcache.ReadReq_miss_latency::cpu.data  31853515000                       # number of ReadReq miss cycles
system.cpu.dcache.ReadReq_miss_latency::total  31853515000                       # number of ReadReq miss cycles
system.cpu.dcache.WriteReq_miss_latency::cpu.data   8296060000                       # number of WriteReq miss cycles
system.cpu.dcache.WriteReq_miss_latency::total   8296060000                       # number of WriteReq miss cycles
system.cpu.dcache.demand_miss_latency::cpu.data  40149575000                       # number of demand (read+write) miss cycles
system.cpu.dcache.demand_miss_latency::total  40149575000                       # number of demand (read+write) miss cycles
system.cpu.dcache.overall_miss_latency::cpu.data  40149575000                       # number of overall miss cycles
system.cpu.dcache.overall_miss_latency::total  40149575000                       # number of overall miss cycles
system.cpu.dcache.ReadReq_accesses::cpu.data    238245975                       # number of ReadReq accesses(hits+misses)
system.cpu.dcache.ReadReq_accesses::total    238245975                       # number of ReadReq accesses(hits+misses)
system.cpu.dcache.WriteReq_accesses::cpu.data     64374644                       # number of WriteReq accesses(hits+misses)
system.cpu.dcache.WriteReq_accesses::total     64374644                       # number of WriteReq accesses(hits+misses)
system.cpu.dcache.demand_accesses::cpu.data    302620619                       # number of demand (read+write) accesses
system.cpu.dcache.demand_accesses::total    302620619                       # number of demand (read+write) accesses
system.cpu.dcache.overall_accesses::cpu.data    302620619                       # number of overall (read+write) accesses
system.cpu.dcache.overall_accesses::total    302620619                       # number of overall (read+write) accesses
system.cpu.dcache.ReadReq_miss_rate::cpu.data     0.002229                       # miss rate for ReadReq accesses
system.cpu.dcache.ReadReq_miss_rate::total     0.002229                       # miss rate for ReadReq accesses
system.cpu.dcache.WriteReq_miss_rate::cpu.data     0.001642                       # miss rate for WriteReq accesses
system.cpu.dcache.WriteReq_miss_rate::total     0.001642                       # miss rate for WriteReq accesses
system.cpu.dcache.demand_miss_rate::cpu.data     0.002104                       # miss rate for demand accesses
system.cpu.dcache.demand_miss_rate::total     0.002104                       # miss rate for demand accesses
system.cpu.dcache.overall_miss_rate::cpu.data     0.002104                       # miss rate for overall accesses
system.cpu.dcache.overall_miss_rate::total     0.002104                       # miss rate for overall accesses
system.cpu.dcache.ReadReq_avg_miss_latency::cpu.data 59980.783788                       # average ReadReq miss latency
system.cpu.dcache.ReadReq_avg_miss_latency::total 59980.783788                       # average ReadReq miss latency
system.cpu.dcache.WriteReq_avg_miss_latency::cpu.data 78477.197696                       # average WriteReq miss latency
system.cpu.dcache.WriteReq_avg_miss_latency::total 78477.197696                       # average WriteReq miss latency
system.cpu.dcache.demand_avg_miss_latency::cpu.data 63051.431039                       # average overall miss latency
system.cpu.dcache.demand_avg_miss_latency::total 63051.431039                       # average overall miss latency
system.cpu.dcache.overall_avg_miss_latency::cpu.data 63051.431039                       # average overall miss latency
system.cpu.dcache.overall_avg_miss_latency::total 63051.431039                       # average overall miss latency
system.cpu.dcache.blocked_cycles::no_mshrs            0                       # number of cycles access was blocked
system.cpu.dcache.blocked_cycles::no_targets            0                       # number of cycles access was blocked
system.cpu.dcache.blocked::no_mshrs                 0                       # number of cycles access was blocked
system.cpu.dcache.blocked::no_targets               0                       # number of cycles access was blocked
system.cpu.dcache.avg_blocked_cycles::no_mshrs          nan                       # average number of cycles each access was blocked
system.cpu.dcache.avg_blocked_cycles::no_targets          nan                       # average number of cycles each access was blocked
system.cpu.dcache.writebacks::writebacks       588187                       # number of writebacks
system.cpu.dcache.writebacks::total            588187                       # number of writebacks
system.cpu.dcache.ReadReq_mshr_misses::cpu.data       531062                       # number of ReadReq MSHR misses
system.cpu.dcache.ReadReq_mshr_misses::total       531062                       # number of ReadReq MSHR misses
system.cpu.dcache.WriteReq_mshr_misses::cpu.data       105713                       # number of WriteReq MSHR misses
system.cpu.dcache.WriteReq_mshr_misses::total       105713                       # number of WriteReq MSHR misses
system.cpu.dcache.demand_mshr_misses::cpu.data       636775                       # number of demand (read+write) MSHR misses
system.cpu.dcache.demand_mshr_misses::total       636775                       # number of demand (read+write) MSHR misses
system.cpu.dcache.overall_mshr_misses::cpu.data       636775                       # number of overall MSHR misses
system.cpu.dcache.overall_mshr_misses::total       636775                       # number of overall MSHR misses
system.cpu.dcache.ReadReq_mshr_miss_latency::cpu.data  31322453000                       # number of ReadReq MSHR miss cycles
system.cpu.dcache.ReadReq_mshr_miss_latency::total  31322453000                       # number of ReadReq MSHR miss cycles
system.cpu.dcache.WriteReq_mshr_miss_latency::cpu.data   8190347000                       # number of WriteReq MSHR miss cycles
system.cpu.dcache.WriteReq_mshr_miss_latency::total   8190347000                       # number of WriteReq MSHR miss cycles
system.cpu.dcache.demand_mshr_miss_latency::cpu.data  39512800000                       # number of demand (read+write) MSHR miss cycles
system.cpu.dcache.demand_mshr_miss_latency::total  39512800000                       # number of demand (read+write) MSHR miss cycles
system.cpu.dcache.overall_mshr_miss_latency::cpu.data  39512800000                       # number of overall MSHR miss cycles
system.cpu.dcache.overall_mshr_miss_latency::total  39512800000                       # number of overall MSHR miss cycles
system.cpu.dcache.ReadReq_mshr_miss_rate::cpu.data     0.002229                       # mshr miss rate for ReadReq accesses
system.cpu.dcache.ReadReq_mshr_miss_rate::total     0.002229                       # mshr miss rate for ReadReq accesses
system.cpu.dcache.WriteReq_mshr_miss_rate::cpu.data     0.001642                       # mshr miss rate for WriteReq accesses
system.cpu.dcache.WriteReq_mshr_miss_rate::total     0.001642                       # mshr miss rate for WriteReq accesses
system.cpu.dcache.demand_mshr_miss_rate::cpu.data     0.002104                       # mshr miss rate for demand accesses
system.cpu.dcache.demand_mshr_miss_rate::total     0.002104                       # mshr miss rate for demand accesses
system.cpu.dcache.overall_mshr_miss_rate::cpu.data     0.002104                       # mshr miss rate for overall accesses
system.cpu.dcache.overall_mshr_miss_rate::total     0.002104                       # mshr miss rate for overall accesses
system.cpu.dcache.ReadReq_avg_mshr_miss_latency::cpu.data 58980.783788                       # average ReadReq mshr miss latency
system.cpu.dcache.ReadReq_avg_mshr_miss_latency::total 58980.783788                       # average ReadReq mshr miss latency
system.cpu.dcache.WriteReq_avg_mshr_miss_latency::cpu.data 77477.197696                       # average WriteReq mshr miss latency
system.cpu.dcache.WriteReq_avg_mshr_miss_latency::total 77477.197696                       # average WriteReq mshr miss latency
system.cpu.dcache.demand_avg_mshr_miss_latency::cpu.data 62051.431039                       # average overall mshr miss latency
system.cpu.dcache.demand_avg_mshr_miss_latency::total 62051.431039                       # average overall mshr miss latency
system.cpu.dcache.overall_avg_mshr_miss_latency::cpu.data 62051.431039                       # average overall mshr miss latency
system.cpu.dcache.overall_avg_mshr_miss_latency::total 62051.431039                       # average overall mshr miss latency
system.cpu.dcache.replacements                 594592                       # number of replacements
system.cpu.dtb_walker_cache.tags.pwrStateResidencyTicks::UNDEFINED 1019526002000                       # Cumulative time (in ticks) in various power states
system.cpu.dtb_walker_cache.tags.tagsinuse            0                       # Cycle average of tags in use
system.cpu.dtb_walker_cache.tags.total_refs            0                       # Total number of references to valid blocks.
system.cpu.dtb_walker_cache.tags.sampled_refs            0                       # Sample count of references to valid blocks.
system.cpu.dtb_walker_cache.tags.avg_refs          nan                       # Average number of references to valid blocks.
system.cpu.dtb_walker_cache.tags.warmup_cycle            0                       # Cycle when the warmup percentage was hit.
system.cpu.dtb_walker_cache.tags.tag_accesses            0                       # Number of tag accesses
system.cpu.dtb_walker_cache.tags.data_accesses            0                       # Number of data accesses
system.cpu.dtb_walker_cache.pwrStateResidencyTicks::UNDEFINED 1019526002000                       # Cumulative time (in ticks) in various power states
system.cpu.dtb_walker_cache.blocked_cycles::no_mshrs            0                       # number of cycles access was blocked
system.cpu.dtb_walker_cache.blocked_cycles::no_targets            0                       # number of cycles access was blocked
system.cpu.dtb_walker_cache.blocked::no_mshrs            0                       # number of cycles access was blocked
system.cpu.dtb_walker_cache.blocked::no_targets            0                       # number of cycles access was blocked
system.cpu.dtb_walker_cache.avg_blocked_cycles::no_mshrs          nan                       # average number of cycles each access was blocked
system.cpu.dtb_walker_cache.avg_blocked_cycles::no_targets          nan                       # average number of cycles each access was blocked
system.cpu.dtb_walker_cache.replacements            0                       # number of replacements
system.cpu.icache.tags.pwrStateResidencyTicks::UNDEFINED 1019526002000                       # Cumulative time (in ticks) in various power states
system.cpu.icache.tags.tagsinuse           279.478554                       # Cycle average of tags in use
system.cpu.icache.tags.total_refs           677335179                       # Total number of references to valid blocks.
system.cpu.icache.tags.sampled_refs               353                       # Sample count of references to valid blocks.
system.cpu.icache.tags.avg_refs          1918796.541076                       # Average number of references to valid blocks.
system.cpu.icache.tags.warmup_cycle            439000                       # Cycle when the warmup percentage was hit.
system.cpu.icache.tags.occ_blocks::cpu.inst   279.478554                       # Average occupied blocks per requestor
system.cpu.icache.tags.occ_percent::cpu.inst     0.545857                       # Average percentage of cache occupancy
system.cpu.icache.tags.occ_percent::total     0.545857                       # Average percentage of cache occupancy
system.cpu.icache.tags.occ_task_id_blocks::1024          308                       # Occupied blocks per task id
system.cpu.icache.tags.age_task_id_blocks_1024::0           19                       # Occupied blocks per task id
system.cpu.icache.tags.age_task_id_blocks_1024::1           19                       # Occupied blocks per task id
system.cpu.icache.tags.age_task_id_blocks_1024::4          270                       # Occupied blocks per task id
system.cpu.icache.tags.occ_task_id_percent::1024     0.601562                       # Percentage of cache occupancy per task id
system.cpu.icache.tags.tag_accesses        1354670711                       # Number of tag accesses
system.cpu.icache.tags.data_accesses       1354670711                       # Number of data accesses
system.cpu.icache.pwrStateResidencyTicks::UNDEFINED 1019526002000                       # Cumulative time (in ticks) in various power states
system.cpu.icache.ReadReq_hits::cpu.inst    677334826                       # number of ReadReq hits
system.cpu.icache.ReadReq_hits::total       677334826                       # number of ReadReq hits
system.cpu.icache.demand_hits::cpu.inst     677334826                       # number of demand (read+write) hits
system.cpu.icache.demand_hits::total        677334826                       # number of demand (read+write) hits
system.cpu.icache.overall_hits::cpu.inst    677334826                       # number of overall hits
system.cpu.icache.overall_hits::total       677334826                       # number of overall hits
system.cpu.icache.ReadReq_misses::cpu.inst          353                       # number of ReadReq misses
system.cpu.icache.ReadReq_misses::total           353                       # number of ReadReq misses
system.cpu.icache.demand_misses::cpu.inst          353                       # number of demand (read+write) misses
system.cpu.icache.demand_misses::total            353                       # number of demand (read+write) misses
system.cpu.icache.overall_misses::cpu.inst          353                       # number of overall misses
system.cpu.icache.overall_misses::total           353                       # number of overall misses
system.cpu.icache.ReadReq_miss_latency::cpu.inst     57760000                       # number of ReadReq miss cycles
system.cpu.icache.ReadReq_miss_latency::total     57760000                       # number of ReadReq miss cycles
system.cpu.icache.demand_miss_latency::cpu.inst     57760000                       # number of demand (read+write) miss cycles
system.cpu.icache.demand_miss_latency::total     57760000                       # number of demand (read+write) miss cycles
system.cpu.icache.overall_miss_latency::cpu.inst     57760000                       # number of overall miss cycles
system.cpu.icache.overall_miss_latency::total     57760000                       # number of overall miss cycles
system.cpu.icache.ReadReq_accesses::cpu.inst    677335179                       # number of ReadReq accesses(hits+misses)
system.cpu.icache.ReadReq_accesses::total    677335179                       # number of ReadReq accesses(hits+misses)
system.cpu.icache.demand_accesses::cpu.inst    677335179                       # number of demand (read+write) accesses
system.cpu.icache.demand_accesses::total    677335179                       # number of demand (read+write) accesses
system.cpu.icache.overall_accesses::cpu.inst    677335179                       # number of overall (read+write) accesses
system.cpu.icache.overall_accesses::total    677335179                       # number of overall (read+write) accesses
system.cpu.icache.ReadReq_miss_rate::cpu.inst     0.000001                       # miss rate for ReadReq accesses
system.cpu.icache.ReadReq_miss_rate::total     0.000001                       # miss rate for ReadReq accesses
system.cpu.icache.demand_miss_rate::cpu.inst     0.000001                       # miss rate for demand accesses
system.cpu.icache.demand_miss_rate::total     0.000001                       # miss rate for demand accesses
system.cpu.icache.overall_miss_rate::cpu.inst     0.000001                       # miss rate for overall accesses
system.cpu.icache.overall_miss_rate::total     0.000001                       # miss rate for overall accesses
system.cpu.icache.ReadReq_avg_miss_latency::cpu.inst 163626.062323                       # average ReadReq miss latency
system.cpu.icache.ReadReq_avg_miss_latency::total 163626.062323                       # average ReadReq miss latency
system.cpu.icache.demand_avg_miss_latency::cpu.inst 163626.062323                       # average overall miss latency
system.cpu.icache.demand_avg_miss_latency::total 163626.062323                       # average overall miss latency
system.cpu.icache.overall_avg_miss_latency::cpu.inst 163626.062323                       # average overall miss latency
system.cpu.icache.overall_avg_miss_latency::total 163626.062323                       # average overall miss latency
system.cpu.icache.blocked_cycles::no_mshrs            0                       # number of cycles access was blocked
system.cpu.icache.blocked_cycles::no_targets            0                       # number of cycles access was blocked
system.cpu.icache.blocked::no_mshrs                 0                       # number of cycles access was blocked
system.cpu.icache.blocked::no_targets               0                       # number of cycles access was blocked
system.cpu.icache.avg_blocked_cycles::no_mshrs          nan                       # average number of cycles each access was blocked
system.cpu.icache.avg_blocked_cycles::no_targets          nan                       # average number of cycles each access was blocked
system.cpu.icache.writebacks::writebacks           45                       # number of writebacks
system.cpu.icache.writebacks::total                45                       # number of writebacks
system.cpu.icache.ReadReq_mshr_misses::cpu.inst          353                       # number of ReadReq MSHR misses
system.cpu.icache.ReadReq_mshr_misses::total          353                       # number of ReadReq MSHR misses
system.cpu.icache.demand_mshr_misses::cpu.inst          353                       # number of demand (read+write) MSHR misses
system.cpu.icache.demand_mshr_misses::total          353                       # number of demand (read+write) MSHR misses
system.cpu.icache.overall_mshr_misses::cpu.inst          353                       # number of overall MSHR misses
system.cpu.icache.overall_mshr_misses::total          353                       # number of overall MSHR misses
system.cpu.icache.ReadReq_mshr_miss_latency::cpu.inst     57407000                       # number of ReadReq MSHR miss cycles
system.cpu.icache.ReadReq_mshr_miss_latency::total     57407000                       # number of ReadReq MSHR miss cycles
system.cpu.icache.demand_mshr_miss_latency::cpu.inst     57407000                       # number of demand (read+write) MSHR miss cycles
system.cpu.icache.demand_mshr_miss_latency::total     57407000                       # number of demand (read+write) MSHR miss cycles
system.cpu.icache.overall_mshr_miss_latency::cpu.inst     57407000                       # number of overall MSHR miss cycles
system.cpu.icache.overall_mshr_miss_latency::total     57407000                       # number of overall MSHR miss cycles
system.cpu.icache.ReadReq_mshr_miss_rate::cpu.inst     0.000001                       # mshr miss rate for ReadReq accesses
system.cpu.icache.ReadReq_mshr_miss_rate::total     0.000001                       # mshr miss rate for ReadReq accesses
system.cpu.icache.demand_mshr_miss_rate::cpu.inst     0.000001                       # mshr miss rate for demand accesses
system.cpu.icache.demand_mshr_miss_rate::total     0.000001                       # mshr miss rate for demand accesses
system.cpu.icache.overall_mshr_miss_rate::cpu.inst     0.000001                       # mshr miss rate for overall accesses
system.cpu.icache.overall_mshr_miss_rate::total     0.000001                       # mshr miss rate for overall accesses
system.cpu.icache.ReadReq_avg_mshr_miss_latency::cpu.inst 162626.062323                       # average ReadReq mshr miss latency
system.cpu.icache.ReadReq_avg_mshr_miss_latency::total 162626.062323                       # average ReadReq mshr miss latency
system.cpu.icache.demand_avg_mshr_miss_latency::cpu.inst 162626.062323                       # average overall mshr miss latency
system.cpu.icache.demand_avg_mshr_miss_latency::total 162626.062323                       # average overall mshr miss latency
system.cpu.icache.overall_avg_mshr_miss_latency::cpu.inst 162626.062323                       # average overall mshr miss latency
system.cpu.icache.overall_avg_mshr_miss_latency::total 162626.062323                       # average overall mshr miss latency
system.cpu.icache.replacements                     45                       # number of replacements
system.cpu.itb_walker_cache.tags.pwrStateResidencyTicks::UNDEFINED 1019526002000                       # Cumulative time (in ticks) in various power states
system.cpu.itb_walker_cache.tags.tagsinuse            0                       # Cycle average of tags in use
system.cpu.itb_walker_cache.tags.total_refs            0                       # Total number of references to valid blocks.
system.cpu.itb_walker_cache.tags.sampled_refs            0                       # Sample count of references to valid blocks.
system.cpu.itb_walker_cache.tags.avg_refs          nan                       # Average number of references to valid blocks.
system.cpu.itb_walker_cache.tags.warmup_cycle            0                       # Cycle when the warmup percentage was hit.
system.cpu.itb_walker_cache.tags.tag_accesses            0                       # Number of tag accesses
system.cpu.itb_walker_cache.tags.data_accesses            0                       # Number of data accesses
system.cpu.itb_walker_cache.pwrStateResidencyTicks::UNDEFINED 1019526002000                       # Cumulative time (in ticks) in various power states
system.cpu.itb_walker_cache.blocked_cycles::no_mshrs            0                       # number of cycles access was blocked
system.cpu.itb_walker_cache.blocked_cycles::no_targets            0                       # number of cycles access was blocked
system.cpu.itb_walker_cache.blocked::no_mshrs            0                       # number of cycles access was blocked
system.cpu.itb_walker_cache.blocked::no_targets            0                       # number of cycles access was blocked
system.cpu.itb_walker_cache.avg_blocked_cycles::no_mshrs          nan                       # average number of cycles each access was blocked
system.cpu.itb_walker_cache.avg_blocked_cycles::no_targets          nan                       # average number of cycles each access was blocked
system.cpu.itb_walker_cache.replacements            0                       # number of replacements
system.l2.tags.pwrStateResidencyTicks::UNDEFINED 1019526002000                       # Cumulative time (in ticks) in various power states
system.l2.tags.tagsinuse                 31744.039778                       # Cycle average of tags in use
system.l2.tags.total_refs                     1231765                       # Total number of references to valid blocks.
system.l2.tags.sampled_refs                    167732                       # Sample count of references to valid blocks.
system.l2.tags.avg_refs                      7.343649                       # Average number of references to valid blocks.
system.l2.tags.warmup_cycle                    428500                       # Cycle when the warmup percentage was hit.
system.l2.tags.occ_blocks::writebacks        0.956063                       # Average occupied blocks per requestor
system.l2.tags.occ_blocks::cpu.inst         18.756007                       # Average occupied blocks per requestor
system.l2.tags.occ_blocks::cpu.data      31724.327709                       # Average occupied blocks per requestor
system.l2.tags.occ_percent::writebacks       0.000029                       # Average percentage of cache occupancy
system.l2.tags.occ_percent::cpu.inst         0.000572                       # Average percentage of cache occupancy
system.l2.tags.occ_percent::cpu.data         0.968150                       # Average percentage of cache occupancy
system.l2.tags.occ_percent::total            0.968751                       # Average percentage of cache occupancy
system.l2.tags.occ_task_id_blocks::1024         32768                       # Occupied blocks per task id
system.l2.tags.age_task_id_blocks_1024::0           36                       # Occupied blocks per task id
system.l2.tags.age_task_id_blocks_1024::1           38                       # Occupied blocks per task id
system.l2.tags.age_task_id_blocks_1024::4        32694                       # Occupied blocks per task id
system.l2.tags.occ_task_id_percent::1024            1                       # Percentage of cache occupancy per task id
system.l2.tags.tag_accesses                  10021852                       # Number of tag accesses
system.l2.tags.data_accesses                 10021852                       # Number of data accesses
system.l2.pwrStateResidencyTicks::UNDEFINED 1019526002000                       # Cumulative time (in ticks) in various power states
system.l2.WritebackDirty_hits::writebacks       588187                       # number of WritebackDirty hits
system.l2.WritebackDirty_hits::total           588187                       # number of WritebackDirty hits
system.l2.WritebackClean_hits::writebacks           45                       # number of WritebackClean hits
system.l2.WritebackClean_hits::total               45                       # number of WritebackClean hits
system.l2.UpgradeReq_hits::cpu.data             41159                       # number of UpgradeReq hits
system.l2.UpgradeReq_hits::total                41159                       # number of UpgradeReq hits
system.l2.ReadExReq_hits::cpu.data               1869                       # number of ReadExReq hits
system.l2.ReadExReq_hits::total                  1869                       # number of ReadExReq hits
system.l2.ReadSharedReq_hits::cpu.data         426387                       # number of ReadSharedReq hits
system.l2.ReadSharedReq_hits::total            426387                       # number of ReadSharedReq hits
system.l2.demand_hits::cpu.data                428256                       # number of demand (read+write) hits
system.l2.demand_hits::total                   428256                       # number of demand (read+write) hits
system.l2.overall_hits::cpu.data               428256                       # number of overall hits
system.l2.overall_hits::total                  428256                       # number of overall hits
system.l2.ReadExReq_misses::cpu.data            62685                       # number of ReadExReq misses
system.l2.ReadExReq_misses::total               62685                       # number of ReadExReq misses
system.l2.ReadCleanReq_misses::cpu.inst           353                       # number of ReadCleanReq misses
system.l2.ReadCleanReq_misses::total              353                       # number of ReadCleanReq misses
system.l2.ReadSharedReq_misses::cpu.data       104675                       # number of ReadSharedReq misses
system.l2.ReadSharedReq_misses::total          104675                       # number of ReadSharedReq misses
system.l2.demand_misses::cpu.inst                 353                       # number of demand (read+write) misses
system.l2.demand_misses::cpu.data              167360                       # number of demand (read+write) misses
system.l2.demand_misses::total                 167713                       # number of demand (read+write) misses
system.l2.overall_misses::cpu.inst                353                       # number of overall misses
system.l2.overall_misses::cpu.data             167360                       # number of overall misses
system.l2.overall_misses::total                167713                       # number of overall misses
system.l2.ReadExReq_miss_latency::cpu.data   7579982500                       # number of ReadExReq miss cycles
system.l2.ReadExReq_miss_latency::total    7579982500                       # number of ReadExReq miss cycles
system.l2.ReadCleanReq_miss_latency::cpu.inst     56876000                       # number of ReadCleanReq miss cycles
system.l2.ReadCleanReq_miss_latency::total     56876000                       # number of ReadCleanReq miss cycles
system.l2.ReadSharedReq_miss_latency::cpu.data  26048796000                       # number of ReadSharedReq miss cycles
system.l2.ReadSharedReq_miss_latency::total  26048796000                       # number of ReadSharedReq miss cycles
system.l2.demand_miss_latency::cpu.inst      56876000                       # number of demand (read+write) miss cycles
system.l2.demand_miss_latency::cpu.data   33628778500                       # number of demand (read+write) miss cycles
system.l2.demand_miss_latency::total      33685654500                       # number of demand (read+write) miss cycles
system.l2.overall_miss_latency::cpu.inst     56876000                       # number of overall miss cycles
system.l2.overall_miss_latency::cpu.data  33628778500                       # number of overall miss cycles
system.l2.overall_miss_latency::total     33685654500                       # number of overall miss cycles
system.l2.WritebackDirty_accesses::writebacks       588187                       # number of WritebackDirty accesses(hits+misses)
system.l2.WritebackDirty_accesses::total       588187                       # number of WritebackDirty accesses(hits+misses)
system.l2.WritebackClean_accesses::writebacks           45                       # number of WritebackClean accesses(hits+misses)
system.l2.WritebackClean_accesses::total           45                       # number of WritebackClean accesses(hits+misses)
system.l2.UpgradeReq_accesses::cpu.data         41159                       # number of UpgradeReq accesses(hits+misses)
system.l2.UpgradeReq_accesses::total            41159                       # number of UpgradeReq accesses(hits+misses)
system.l2.ReadExReq_accesses::cpu.data          64554                       # number of ReadExReq accesses(hits+misses)
system.l2.ReadExReq_accesses::total             64554                       # number of ReadExReq accesses(hits+misses)
system.l2.ReadCleanReq_accesses::cpu.inst          353                       # number of ReadCleanReq accesses(hits+misses)
system.l2.ReadCleanReq_accesses::total            353                       # number of ReadCleanReq accesses(hits+misses)
system.l2.ReadSharedReq_accesses::cpu.data       531062                       # number of ReadSharedReq accesses(hits+misses)
system.l2.ReadSharedReq_accesses::total        531062                       # number of ReadSharedReq accesses(hits+misses)
system.l2.demand_accesses::cpu.inst               353                       # number of demand (read+write) accesses
system.l2.demand_accesses::cpu.data            595616                       # number of demand (read+write) accesses
system.l2.demand_accesses::total               595969                       # number of demand (read+write) accesses
system.l2.overall_accesses::cpu.inst              353                       # number of overall (read+write) accesses
system.l2.overall_accesses::cpu.data           595616                       # number of overall (read+write) accesses
system.l2.overall_accesses::total              595969                       # number of overall (read+write) accesses
system.l2.ReadExReq_miss_rate::cpu.data      0.971047                       # miss rate for ReadExReq accesses
system.l2.ReadExReq_miss_rate::total         0.971047                       # miss rate for ReadExReq accesses
system.l2.ReadCleanReq_miss_rate::cpu.inst            1                       # miss rate for ReadCleanReq accesses
system.l2.ReadCleanReq_miss_rate::total             1                       # miss rate for ReadCleanReq accesses
system.l2.ReadSharedReq_miss_rate::cpu.data     0.197105                       # miss rate for ReadSharedReq accesses
system.l2.ReadSharedReq_miss_rate::total     0.197105                       # miss rate for ReadSharedReq accesses
system.l2.demand_miss_rate::cpu.inst                1                       # miss rate for demand accesses
system.l2.demand_miss_rate::cpu.data         0.280986                       # miss rate for demand accesses
system.l2.demand_miss_rate::total            0.281412                       # miss rate for demand accesses
system.l2.overall_miss_rate::cpu.inst               1                       # miss rate for overall accesses
system.l2.overall_miss_rate::cpu.data        0.280986                       # miss rate for overall accesses
system.l2.overall_miss_rate::total           0.281412                       # miss rate for overall accesses
system.l2.ReadExReq_avg_miss_latency::cpu.data 120921.791497                       # average ReadExReq miss latency
system.l2.ReadExReq_avg_miss_latency::total 120921.791497                       # average ReadExReq miss latency
system.l2.ReadCleanReq_avg_miss_latency::cpu.inst 161121.813031                       # average ReadCleanReq miss latency
system.l2.ReadCleanReq_avg_miss_latency::total 161121.813031                       # average ReadCleanReq miss latency
system.l2.ReadSharedReq_avg_miss_latency::cpu.data 248854.033914                       # average ReadSharedReq miss latency
system.l2.ReadSharedReq_avg_miss_latency::total 248854.033914                       # average ReadSharedReq miss latency
system.l2.demand_avg_miss_latency::cpu.inst 161121.813031                       # average overall miss latency
system.l2.demand_avg_miss_latency::cpu.data 200936.774020                       # average overall miss latency
system.l2.demand_avg_miss_latency::total 200852.972042                       # average overall miss latency
system.l2.overall_avg_miss_latency::cpu.inst 161121.813031                       # average overall miss latency
system.l2.overall_avg_miss_latency::cpu.data 200936.774020                       # average overall miss latency
system.l2.overall_avg_miss_latency::total 200852.972042                       # average overall miss latency
system.l2.blocked_cycles::no_mshrs                  0                       # number of cycles access was blocked
system.l2.blocked_cycles::no_targets                0                       # number of cycles access was blocked
system.l2.blocked::no_mshrs                         0                       # number of cycles access was blocked
system.l2.blocked::no_targets                       0                       # number of cycles access was blocked
system.l2.avg_blocked_cycles::no_mshrs            nan                       # average number of cycles each access was blocked
system.l2.avg_blocked_cycles::no_targets          nan                       # average number of cycles each access was blocked
system.l2.writebacks::writebacks               134553                       # number of writebacks
system.l2.writebacks::total                    134553                       # number of writebacks
system.l2.ReadExReq_mshr_misses::cpu.data        62685                       # number of ReadExReq MSHR misses
system.l2.ReadExReq_mshr_misses::total          62685                       # number of ReadExReq MSHR misses
system.l2.ReadCleanReq_mshr_misses::cpu.inst          353                       # number of ReadCleanReq MSHR misses
system.l2.ReadCleanReq_mshr_misses::total          353                       # number of ReadCleanReq MSHR misses
system.l2.ReadSharedReq_mshr_misses::cpu.data       104675                       # number of ReadSharedReq MSHR misses
system.l2.ReadSharedReq_mshr_misses::total       104675                       # number of ReadSharedReq MSHR misses
system.l2.demand_mshr_misses::cpu.inst            353                       # number of demand (read+write) MSHR misses
system.l2.demand_mshr_misses::cpu.data         167360                       # number of demand (read+write) MSHR misses
system.l2.demand_mshr_misses::total            167713                       # number of demand (read+write) MSHR misses
system.l2.overall_mshr_misses::cpu.inst           353                       # number of overall MSHR misses
system.l2.overall_mshr_misses::cpu.data        167360                       # number of overall MSHR misses
system.l2.overall_mshr_misses::total           167713                       # number of overall MSHR misses
system.l2.ReadExReq_mshr_miss_latency::cpu.data   6953132500                       # number of ReadExReq MSHR miss cycles
system.l2.ReadExReq_mshr_miss_latency::total   6953132500                       # number of ReadExReq MSHR miss cycles
system.l2.ReadCleanReq_mshr_miss_latency::cpu.inst     53346000                       # number of ReadCleanReq MSHR miss cycles
system.l2.ReadCleanReq_mshr_miss_latency::total     53346000                       # number of ReadCleanReq MSHR miss cycles
system.l2.ReadSharedReq_mshr_miss_latency::cpu.data  25002046000                       # number of ReadSharedReq MSHR miss cycles
system.l2.ReadSharedReq_mshr_miss_latency::total  25002046000                       # number of ReadSharedReq MSHR miss cycles
system.l2.demand_mshr_miss_latency::cpu.inst     53346000                       # number of demand (read+write) MSHR miss cycles
system.l2.demand_mshr_miss_latency::cpu.data  31955178500                       # number of demand (read+write) MSHR miss cycles
system.l2.demand_mshr_miss_latency::total  32008524500                       # number of demand (read+write) MSHR miss cycles
system.l2.overall_mshr_miss_latency::cpu.inst     53346000                       # number of overall MSHR miss cycles
system.l2.overall_mshr_miss_latency::cpu.data  31955178500                       # number of overall MSHR miss cycles
system.l2.overall_mshr_miss_latency::total  32008524500                       # number of overall MSHR miss cycles
system.l2.ReadExReq_mshr_miss_rate::cpu.data     0.971047                       # mshr miss rate for ReadExReq accesses
system.l2.ReadExReq_mshr_miss_rate::total     0.971047                       # mshr miss rate for ReadExReq accesses
system.l2.ReadCleanReq_mshr_miss_rate::cpu.inst            1                       # mshr miss rate for ReadCleanReq accesses
system.l2.ReadCleanReq_mshr_miss_rate::total            1                       # mshr miss rate for ReadCleanReq accesses
system.l2.ReadSharedReq_mshr_miss_rate::cpu.data     0.197105                       # mshr miss rate for ReadSharedReq accesses
system.l2.ReadSharedReq_mshr_miss_rate::total     0.197105                       # mshr miss rate for ReadSharedReq accesses
system.l2.demand_mshr_miss_rate::cpu.inst            1                       # mshr miss rate for demand accesses
system.l2.demand_mshr_miss_rate::cpu.data     0.280986                       # mshr miss rate for demand accesses
system.l2.demand_mshr_miss_rate::total       0.281412                       # mshr miss rate for demand accesses
system.l2.overall_mshr_miss_rate::cpu.inst            1                       # mshr miss rate for overall accesses
system.l2.overall_mshr_miss_rate::cpu.data     0.280986                       # mshr miss rate for overall accesses
system.l2.overall_mshr_miss_rate::total      0.281412                       # mshr miss rate for overall accesses
system.l2.ReadExReq_avg_mshr_miss_latency::cpu.data 110921.791497                       # average ReadExReq mshr miss latency
system.l2.ReadExReq_avg_mshr_miss_latency::total 110921.791497                       # average ReadExReq mshr miss latency
system.l2.ReadCleanReq_avg_mshr_miss_latency::cpu.inst 151121.813031                       # average ReadCleanReq mshr miss latency
system.l2.ReadCleanReq_avg_mshr_miss_latency::total 151121.813031                       # average ReadCleanReq mshr miss latency
system.l2.ReadSharedReq_avg_mshr_miss_latency::cpu.data 238854.033914                       # average ReadSharedReq mshr miss latency
system.l2.ReadSharedReq_avg_mshr_miss_latency::total 238854.033914                       # average ReadSharedReq mshr miss latency
system.l2.demand_avg_mshr_miss_latency::cpu.inst 151121.813031                       # average overall mshr miss latency
system.l2.demand_avg_mshr_miss_latency::cpu.data 190936.774020                       # average overall mshr miss latency
system.l2.demand_avg_mshr_miss_latency::total 190852.972042                       # average overall mshr miss latency
system.l2.overall_avg_mshr_miss_latency::cpu.inst 151121.813031                       # average overall mshr miss latency
system.l2.overall_avg_mshr_miss_latency::cpu.data 190936.774020                       # average overall mshr miss latency
system.l2.overall_avg_mshr_miss_latency::total 190852.972042                       # average overall mshr miss latency
system.l2.replacements                         134964                       # number of replacements
system.l3.tags.pwrStateResidencyTicks::UNDEFINED 1019526002000                       # Cumulative time (in ticks) in various power states
system.l3.tags.tagsinuse                 31739.745702                       # Cycle average of tags in use
system.l3.tags.total_refs                      302266                       # Total number of references to valid blocks.
system.l3.tags.sampled_refs                    213465                       # Sample count of references to valid blocks.
system.l3.tags.avg_refs                      1.415998                       # Average number of references to valid blocks.
system.l3.tags.warmup_cycle                    418000                       # Cycle when the warmup percentage was hit.
system.l3.tags.occ_blocks::writebacks     7277.638706                       # Average occupied blocks per requestor
system.l3.tags.occ_blocks::cpu.inst         14.860713                       # Average occupied blocks per requestor
system.l3.tags.occ_blocks::cpu.data      24447.246283                       # Average occupied blocks per requestor
system.l3.tags.occ_percent::writebacks       0.222096                       # Average percentage of cache occupancy
system.l3.tags.occ_percent::cpu.inst         0.000454                       # Average percentage of cache occupancy
system.l3.tags.occ_percent::cpu.data         0.746071                       # Average percentage of cache occupancy
system.l3.tags.occ_percent::total            0.968620                       # Average percentage of cache occupancy
system.l3.tags.occ_task_id_blocks::1024         32768                       # Occupied blocks per task id
system.l3.tags.age_task_id_blocks_1024::0           35                       # Occupied blocks per task id
system.l3.tags.age_task_id_blocks_1024::1           34                       # Occupied blocks per task id
system.l3.tags.age_task_id_blocks_1024::4        32699                       # Occupied blocks per task id
system.l3.tags.occ_task_id_percent::1024            1                       # Percentage of cache occupancy per task id
system.l3.tags.tag_accesses                    818241                       # Number of tag accesses
system.l3.tags.data_accesses                   818241                       # Number of data accesses
system.l3.pwrStateResidencyTicks::UNDEFINED 1019526002000                       # Cumulative time (in ticks) in various power states
system.l3.WritebackDirty_hits::writebacks       134553                       # number of WritebackDirty hits
system.l3.WritebackDirty_hits::total           134553                       # number of WritebackDirty hits
system.l3.ReadExReq_hits::cpu.data                 33                       # number of ReadExReq hits
system.l3.ReadExReq_hits::total                    33                       # number of ReadExReq hits
system.l3.ReadSharedReq_hits::cpu.data          44450                       # number of ReadSharedReq hits
system.l3.ReadSharedReq_hits::total             44450                       # number of ReadSharedReq hits
system.l3.demand_hits::cpu.data                 44483                       # number of demand (read+write) hits
system.l3.demand_hits::total                    44483                       # number of demand (read+write) hits
system.l3.overall_hits::cpu.data                44483                       # number of overall hits
system.l3.overall_hits::total                   44483                       # number of overall hits
system.l3.ReadExReq_misses::cpu.data            62652                       # number of ReadExReq misses
system.l3.ReadExReq_misses::total               62652                       # number of ReadExReq misses
system.l3.ReadSharedReq_misses::cpu.inst          353                       # number of ReadSharedReq misses
system.l3.ReadSharedReq_misses::cpu.data        60225                       # number of ReadSharedReq misses
system.l3.ReadSharedReq_misses::total           60578                       # number of ReadSharedReq misses
system.l3.demand_misses::cpu.inst                 353                       # number of demand (read+write) misses
system.l3.demand_misses::cpu.data              122877                       # number of demand (read+write) misses
system.l3.demand_misses::total                 123230                       # number of demand (read+write) misses
system.l3.overall_misses::cpu.inst                353                       # number of overall misses
system.l3.overall_misses::cpu.data             122877                       # number of overall misses
system.l3.overall_misses::total                123230                       # number of overall misses
system.l3.ReadExReq_miss_latency::cpu.data   6263251000                       # number of ReadExReq miss cycles
system.l3.ReadExReq_miss_latency::total    6263251000                       # number of ReadExReq miss cycles
system.l3.ReadSharedReq_miss_latency::cpu.inst     49463000                       # number of ReadSharedReq miss cycles
system.l3.ReadSharedReq_miss_latency::cpu.data  23182425000                       # number of ReadSharedReq miss cycles
system.l3.ReadSharedReq_miss_latency::total  23231888000                       # number of ReadSharedReq miss cycles
system.l3.demand_miss_latency::cpu.inst      49463000                       # number of demand (read+write) miss cycles
system.l3.demand_miss_latency::cpu.data   29445676000                       # number of demand (read+write) miss cycles
system.l3.demand_miss_latency::total      29495139000                       # number of demand (read+write) miss cycles
system.l3.overall_miss_latency::cpu.inst     49463000                       # number of overall miss cycles
system.l3.overall_miss_latency::cpu.data  29445676000                       # number of overall miss cycles
system.l3.overall_miss_latency::total     29495139000                       # number of overall miss cycles
system.l3.WritebackDirty_accesses::writebacks       134553                       # number of WritebackDirty accesses(hits+misses)
system.l3.WritebackDirty_accesses::total       134553                       # number of WritebackDirty accesses(hits+misses)
system.l3.ReadExReq_accesses::cpu.data          62685                       # number of ReadExReq accesses(hits+misses)
system.l3.ReadExReq_accesses::total             62685                       # number of ReadExReq accesses(hits+misses)
system.l3.ReadSharedReq_accesses::cpu.inst          353                       # number of ReadSharedReq accesses(hits+misses)
system.l3.ReadSharedReq_accesses::cpu.data       104675                       # number of ReadSharedReq accesses(hits+misses)
system.l3.ReadSharedReq_accesses::total        105028                       # number of ReadSharedReq accesses(hits+misses)
system.l3.demand_accesses::cpu.inst               353                       # number of demand (read+write) accesses
system.l3.demand_accesses::cpu.data            167360                       # number of demand (read+write) accesses
system.l3.demand_accesses::total               167713                       # number of demand (read+write) accesses
system.l3.overall_accesses::cpu.inst              353                       # number of overall (read+write) accesses
system.l3.overall_accesses::cpu.data           167360                       # number of overall (read+write) accesses
system.l3.overall_accesses::total              167713                       # number of overall (read+write) accesses
system.l3.ReadExReq_miss_rate::cpu.data      0.999474                       # miss rate for ReadExReq accesses
system.l3.ReadExReq_miss_rate::total         0.999474                       # miss rate for ReadExReq accesses
system.l3.ReadSharedReq_miss_rate::cpu.inst            1                       # miss rate for ReadSharedReq accesses
system.l3.ReadSharedReq_miss_rate::cpu.data     0.575352                       # miss rate for ReadSharedReq accesses
system.l3.ReadSharedReq_miss_rate::total     0.576780                       # miss rate for ReadSharedReq accesses
system.l3.demand_miss_rate::cpu.inst                1                       # miss rate for demand accesses
system.l3.demand_miss_rate::cpu.data         0.734208                       # miss rate for demand accesses
system.l3.demand_miss_rate::total            0.734767                       # miss rate for demand accesses
system.l3.overall_miss_rate::cpu.inst               1                       # miss rate for overall accesses
system.l3.overall_miss_rate::cpu.data        0.734208                       # miss rate for overall accesses
system.l3.overall_miss_rate::total           0.734767                       # miss rate for overall accesses
system.l3.ReadExReq_avg_miss_latency::cpu.data 99968.891655                       # average ReadExReq miss latency
system.l3.ReadExReq_avg_miss_latency::total 99968.891655                       # average ReadExReq miss latency
system.l3.ReadSharedReq_avg_miss_latency::cpu.inst 140121.813031                       # average ReadSharedReq miss latency
system.l3.ReadSharedReq_avg_miss_latency::cpu.data 384930.261519                       # average ReadSharedReq miss latency
system.l3.ReadSharedReq_avg_miss_latency::total 383503.714220                       # average ReadSharedReq miss latency
system.l3.demand_avg_miss_latency::cpu.inst 140121.813031                       # average overall miss latency
system.l3.demand_avg_miss_latency::cpu.data 239635.375213                       # average overall miss latency
system.l3.demand_avg_miss_latency::total 239350.312424                       # average overall miss latency
system.l3.overall_avg_miss_latency::cpu.inst 140121.813031                       # average overall miss latency
system.l3.overall_avg_miss_latency::cpu.data 239635.375213                       # average overall miss latency
system.l3.overall_avg_miss_latency::total 239350.312424                       # average overall miss latency
system.l3.blocked_cycles::no_mshrs                  0                       # number of cycles access was blocked
system.l3.blocked_cycles::no_targets                0                       # number of cycles access was blocked
system.l3.blocked::no_mshrs                         0                       # number of cycles access was blocked
system.l3.blocked::no_targets                       0                       # number of cycles access was blocked
system.l3.avg_blocked_cycles::no_mshrs            nan                       # average number of cycles each access was blocked
system.l3.avg_blocked_cycles::no_targets          nan                       # average number of cycles each access was blocked
system.l3.writebacks::writebacks                74455                       # number of writebacks
system.l3.writebacks::total                     74455                       # number of writebacks
system.l3.CleanEvict_mshr_misses::writebacks          122                       # number of CleanEvict MSHR misses
system.l3.CleanEvict_mshr_misses::total           122                       # number of CleanEvict MSHR misses
system.l3.ReadExReq_mshr_misses::cpu.data        62652                       # number of ReadExReq MSHR misses
system.l3.ReadExReq_mshr_misses::total          62652                       # number of ReadExReq MSHR misses
system.l3.ReadSharedReq_mshr_misses::cpu.inst          353                       # number of ReadSharedReq MSHR misses
system.l3.ReadSharedReq_mshr_misses::cpu.data        60225                       # number of ReadSharedReq MSHR misses
system.l3.ReadSharedReq_mshr_misses::total        60578                       # number of ReadSharedReq MSHR misses
system.l3.demand_mshr_misses::cpu.inst            353                       # number of demand (read+write) MSHR misses
system.l3.demand_mshr_misses::cpu.data         122877                       # number of demand (read+write) MSHR misses
system.l3.demand_mshr_misses::total            123230                       # number of demand (read+write) MSHR misses
system.l3.overall_mshr_misses::cpu.inst           353                       # number of overall MSHR misses
system.l3.overall_mshr_misses::cpu.data        122877                       # number of overall MSHR misses
system.l3.overall_mshr_misses::total           123230                       # number of overall MSHR misses
system.l3.ReadExReq_mshr_miss_latency::cpu.data   5636731000                       # number of ReadExReq MSHR miss cycles
system.l3.ReadExReq_mshr_miss_latency::total   5636731000                       # number of ReadExReq MSHR miss cycles
system.l3.ReadSharedReq_mshr_miss_latency::cpu.inst     45933000                       # number of ReadSharedReq MSHR miss cycles
system.l3.ReadSharedReq_mshr_miss_latency::cpu.data  22580175000                       # number of ReadSharedReq MSHR miss cycles
system.l3.ReadSharedReq_mshr_miss_latency::total  22626108000                       # number of ReadSharedReq MSHR miss cycles
system.l3.demand_mshr_miss_latency::cpu.inst     45933000                       # number of demand (read+write) MSHR miss cycles
system.l3.demand_mshr_miss_latency::cpu.data  28216906000                       # number of demand (read+write) MSHR miss cycles
system.l3.demand_mshr_miss_latency::total  28262839000                       # number of demand (read+write) MSHR miss cycles
system.l3.overall_mshr_miss_latency::cpu.inst     45933000                       # number of overall MSHR miss cycles
system.l3.overall_mshr_miss_latency::cpu.data  28216906000                       # number of overall MSHR miss cycles
system.l3.overall_mshr_miss_latency::total  28262839000                       # number of overall MSHR miss cycles
system.l3.CleanEvict_mshr_miss_rate::writebacks          inf                       # mshr miss rate for CleanEvict accesses
system.l3.CleanEvict_mshr_miss_rate::total          inf                       # mshr miss rate for CleanEvict accesses
system.l3.ReadExReq_mshr_miss_rate::cpu.data     0.999474                       # mshr miss rate for ReadExReq accesses
system.l3.ReadExReq_mshr_miss_rate::total     0.999474                       # mshr miss rate for ReadExReq accesses
system.l3.ReadSharedReq_mshr_miss_rate::cpu.inst            1                       # mshr miss rate for ReadSharedReq accesses
system.l3.ReadSharedReq_mshr_miss_rate::cpu.data     0.575352                       # mshr miss rate for ReadSharedReq accesses
system.l3.ReadSharedReq_mshr_miss_rate::total     0.576780                       # mshr miss rate for ReadSharedReq accesses
system.l3.demand_mshr_miss_rate::cpu.inst            1                       # mshr miss rate for demand accesses
system.l3.demand_mshr_miss_rate::cpu.data     0.734208                       # mshr miss rate for demand accesses
system.l3.demand_mshr_miss_rate::total       0.734767                       # mshr miss rate for demand accesses
system.l3.overall_mshr_miss_rate::cpu.inst            1                       # mshr miss rate for overall accesses
system.l3.overall_mshr_miss_rate::cpu.data     0.734208                       # mshr miss rate for overall accesses
system.l3.overall_mshr_miss_rate::total      0.734767                       # mshr miss rate for overall accesses
system.l3.ReadExReq_avg_mshr_miss_latency::cpu.data 89968.891655                       # average ReadExReq mshr miss latency
system.l3.ReadExReq_avg_mshr_miss_latency::total 89968.891655                       # average ReadExReq mshr miss latency
system.l3.ReadSharedReq_avg_mshr_miss_latency::cpu.inst 130121.813031                       # average ReadSharedReq mshr miss latency
system.l3.ReadSharedReq_avg_mshr_miss_latency::cpu.data 374930.261519                       # average ReadSharedReq mshr miss latency
system.l3.ReadSharedReq_avg_mshr_miss_latency::total 373503.714220                       # average ReadSharedReq mshr miss latency
system.l3.demand_avg_mshr_miss_latency::cpu.inst 130121.813031                       # average overall mshr miss latency
system.l3.demand_avg_mshr_miss_latency::cpu.data 229635.375213                       # average overall mshr miss latency
system.l3.demand_avg_mshr_miss_latency::total 229350.312424                       # average overall mshr miss latency
system.l3.overall_avg_mshr_miss_latency::cpu.inst 130121.813031                       # average overall mshr miss latency
system.l3.overall_avg_mshr_miss_latency::cpu.data 229635.375213                       # average overall mshr miss latency
system.l3.overall_avg_mshr_miss_latency::total 229350.312424                       # average overall mshr miss latency
system.l3.replacements                         180697                       # number of replacements
system.membus.snoop_filter.tot_requests        217492                       # Total number of requests made to the snoop filter.
system.membus.snoop_filter.hit_single_requests        94262                       # Number of requests hitting in the snoop filter with a single holder of the requested data.
system.membus.snoop_filter.hit_multi_requests            0                       # Number of requests hitting in the snoop filter with multiple (>1) holders of the requested data.
system.membus.snoop_filter.tot_snoops               0                       # Total number of snoops made to the snoop filter.
system.membus.snoop_filter.hit_single_snoops            0                       # Number of snoops hitting in the snoop filter with a single holder of the requested data.
system.membus.snoop_filter.hit_multi_snoops            0                       # Number of snoops hitting in the snoop filter with multiple (>1) holders of the requested data.
system.membus.pwrStateResidencyTicks::UNDEFINED 1019526002000                       # Cumulative time (in ticks) in various power states
system.membus.trans_dist::ReadResp              60578                       # Transaction distribution
system.membus.trans_dist::WritebackDirty        74455                       # Transaction distribution
system.membus.trans_dist::CleanEvict              122                       # Transaction distribution
system.membus.trans_dist::ReadExReq             62652                       # Transaction distribution
system.membus.trans_dist::ReadExResp            62652                       # Transaction distribution
system.membus.trans_dist::ReadSharedReq         60578                       # Transaction distribution
system.membus.pkt_count_system.l3.mem_side::system.mem_ctrls.port       321037                       # Packet count per connected master and slave (bytes)
system.membus.pkt_count_system.l3.mem_side::total       321037                       # Packet count per connected master and slave (bytes)
system.membus.pkt_count::total                 321037                       # Packet count per connected master and slave (bytes)
system.membus.pkt_size_system.l3.mem_side::system.mem_ctrls.port     12651840                       # Cumulative packet size per connected master and slave (bytes)
system.membus.pkt_size_system.l3.mem_side::total     12651840                       # Cumulative packet size per connected master and slave (bytes)
system.membus.pkt_size::total                12651840                       # Cumulative packet size per connected master and slave (bytes)
system.membus.snoops                                0                       # Total snoops (count)
system.membus.snoopTraffic                          0                       # Total snoop traffic (bytes)
system.membus.snoop_fanout::samples            123230                       # Request fanout histogram
system.membus.snoop_fanout::mean                    0                       # Request fanout histogram
system.membus.snoop_fanout::stdev                   0                       # Request fanout histogram
system.membus.snoop_fanout::underflows              0      0.00%      0.00% # Request fanout histogram
system.membus.snoop_fanout::0                  123230    100.00%    100.00% # Request fanout histogram
system.membus.snoop_fanout::1                       0      0.00%    100.00% # Request fanout histogram
system.membus.snoop_fanout::overflows               0      0.00%    100.00% # Request fanout histogram
system.membus.snoop_fanout::min_value               0                       # Request fanout histogram
system.membus.snoop_fanout::max_value               0                       # Request fanout histogram
system.membus.snoop_fanout::total              123230                       # Request fanout histogram
system.membus.reqLayer2.occupancy           516154000                       # Layer occupancy (ticks)
system.membus.reqLayer2.utilization               0.1                       # Layer utilization (%)
system.membus.respLayer1.occupancy          616154000                       # Layer occupancy (ticks)
system.membus.respLayer1.utilization              0.1                       # Layer utilization (%)
system.tol2bus.snoop_filter.tot_requests      1231765                       # Total number of requests made to the snoop filter.
system.tol2bus.snoop_filter.hit_single_requests       635796                       # Number of requests hitting in the snoop filter with a single holder of the requested data.
system.tol2bus.snoop_filter.hit_multi_requests            0                       # Number of requests hitting in the snoop filter with multiple (>1) holders of the requested data.
system.tol2bus.snoop_filter.tot_snoops          41819                       # Total number of snoops made to the snoop filter.
system.tol2bus.snoop_filter.hit_single_snoops        41819                       # Number of snoops hitting in the snoop filter with a single holder of the requested data.
system.tol2bus.snoop_filter.hit_multi_snoops            0                       # Number of snoops hitting in the snoop filter with multiple (>1) holders of the requested data.
system.tol2bus.pwrStateResidencyTicks::UNDEFINED 1019526002000                       # Cumulative time (in ticks) in various power states
system.tol2bus.trans_dist::ReadResp            531415                       # Transaction distribution
system.tol2bus.trans_dist::WritebackDirty       722740                       # Transaction distribution
system.tol2bus.trans_dist::WritebackClean           45                       # Transaction distribution
system.tol2bus.trans_dist::CleanEvict          113058                       # Transaction distribution
system.tol2bus.trans_dist::UpgradeReq           41159                       # Transaction distribution
system.tol2bus.trans_dist::UpgradeResp          41159                       # Transaction distribution
system.tol2bus.trans_dist::ReadExReq            64554                       # Transaction distribution
system.tol2bus.trans_dist::ReadExResp           64554                       # Transaction distribution
system.tol2bus.trans_dist::ReadCleanReq           353                       # Transaction distribution
system.tol2bus.trans_dist::ReadSharedReq       531062                       # Transaction distribution
system.tol2bus.pkt_count_system.cpu.icache.mem_side::system.l2.cpu_side          751                       # Packet count per connected master and slave (bytes)
system.tol2bus.pkt_count_system.cpu.dcache.mem_side::system.l2.cpu_side      1868142                       # Packet count per connected master and slave (bytes)
system.tol2bus.pkt_count::total               1868893                       # Packet count per connected master and slave (bytes)
system.tol2bus.pkt_size_system.cpu.icache.mem_side::system.l2.cpu_side        25472                       # Cumulative packet size per connected master and slave (bytes)
system.tol2bus.pkt_size_system.cpu.dcache.mem_side::system.l2.cpu_side     75763392                       # Cumulative packet size per connected master and slave (bytes)
system.tol2bus.pkt_size::total               75788864                       # Cumulative packet size per connected master and slave (bytes)
system.tol2bus.snoops                          241206                       # Total snoops (count)
system.tol2bus.snoopTraffic                   8611392                       # Total snoop traffic (bytes)
system.tol2bus.snoop_fanout::samples           878334                       # Request fanout histogram
system.tol2bus.snoop_fanout::mean            0.047612                       # Request fanout histogram
system.tol2bus.snoop_fanout::stdev           0.212943                       # Request fanout histogram
system.tol2bus.snoop_fanout::underflows             0      0.00%      0.00% # Request fanout histogram
system.tol2bus.snoop_fanout::0                 836515     95.24%     95.24% # Request fanout histogram
system.tol2bus.snoop_fanout::1                  41819      4.76%    100.00% # Request fanout histogram
system.tol2bus.snoop_fanout::2                      0      0.00%    100.00% # Request fanout histogram
system.tol2bus.snoop_fanout::3                      0      0.00%    100.00% # Request fanout histogram
system.tol2bus.snoop_fanout::4                      0      0.00%    100.00% # Request fanout histogram
system.tol2bus.snoop_fanout::overflows              0      0.00%    100.00% # Request fanout histogram
system.tol2bus.snoop_fanout::min_value              0                       # Request fanout histogram
system.tol2bus.snoop_fanout::max_value              1                       # Request fanout histogram
system.tol2bus.snoop_fanout::total             878334                       # Request fanout histogram
system.tol2bus.reqLayer0.occupancy         1204114500                       # Layer occupancy (ticks)
system.tol2bus.reqLayer0.utilization              0.1                       # Layer utilization (%)
system.tol2bus.respLayer0.occupancy            529500                       # Layer occupancy (ticks)
system.tol2bus.respLayer0.utilization             0.0                       # Layer utilization (%)
system.tol2bus.respLayer1.occupancy         914003500                       # Layer occupancy (ticks)
system.tol2bus.respLayer1.utilization             0.1                       # Layer utilization (%)
system.tol3bus.snoop_filter.tot_requests       302530                       # Total number of requests made to the snoop filter.
system.tol3bus.snoop_filter.hit_single_requests       134675                       # Number of requests hitting in the snoop filter with a single holder of the requested data.
system.tol3bus.snoop_filter.hit_multi_requests            0                       # Number of requests hitting in the snoop filter with multiple (>1) holders of the requested data.
system.tol3bus.snoop_filter.tot_snoops         106242                       # Total number of snoops made to the snoop filter.
system.tol3bus.snoop_filter.hit_single_snoops       106242                       # Number of snoops hitting in the snoop filter with a single holder of the requested data.
system.tol3bus.snoop_filter.hit_multi_snoops            0                       # Number of snoops hitting in the snoop filter with multiple (>1) holders of the requested data.
system.tol3bus.pwrStateResidencyTicks::UNDEFINED 1019526002000                       # Cumulative time (in ticks) in various power states
system.tol3bus.trans_dist::ReadResp            105028                       # Transaction distribution
system.tol3bus.trans_dist::WritebackDirty       209008                       # Transaction distribution
system.tol3bus.trans_dist::CleanEvict          106364                       # Transaction distribution
system.tol3bus.trans_dist::ReadExReq            62685                       # Transaction distribution
system.tol3bus.trans_dist::ReadExResp           62685                       # Transaction distribution
system.tol3bus.trans_dist::ReadSharedReq       105028                       # Transaction distribution
system.tol3bus.pkt_count_system.l2.mem_side::system.l3.cpu_side       470101                       # Packet count per connected master and slave (bytes)
system.tol3bus.pkt_size_system.l2.mem_side::system.l3.cpu_side     19345024                       # Cumulative packet size per connected master and slave (bytes)
system.tol3bus.snoops                          180697                       # Total snoops (count)
system.tol3bus.snoopTraffic                   4765120                       # Total snoop traffic (bytes)
system.tol3bus.snoop_fanout::samples           348552                       # Request fanout histogram
system.tol3bus.snoop_fanout::mean            0.304810                       # Request fanout histogram
system.tol3bus.snoop_fanout::stdev           0.460327                       # Request fanout histogram
system.tol3bus.snoop_fanout::underflows             0      0.00%      0.00% # Request fanout histogram
system.tol3bus.snoop_fanout::0                 242310     69.52%     69.52% # Request fanout histogram
system.tol3bus.snoop_fanout::1                 106242     30.48%    100.00% # Request fanout histogram
system.tol3bus.snoop_fanout::overflows              0      0.00%    100.00% # Request fanout histogram
system.tol3bus.snoop_fanout::min_value              0                       # Request fanout histogram
system.tol3bus.snoop_fanout::max_value              1                       # Request fanout histogram
system.tol3bus.snoop_fanout::total             348552                       # Request fanout histogram
system.tol3bus.reqLayer0.occupancy          285888858                       # Layer occupancy (ticks)
system.tol3bus.reqLayer0.utilization              0.0                       # Layer utilization (%)
system.tol3bus.respLayer0.occupancy         251569642                       # Layer occupancy (ticks)
system.tol3bus.respLayer0.utilization             0.0                       # Layer utilization (%)

---------- End Simulation Statistics   ----------
